Miscellaneous_files/branches.csv
fbus,tbus,r,x,b,rateA,rateB,rateC,ratio,angle,status,angmin,angmax,Pf,Qf,Pt,Qt,mu_Sf,mu_St,mu_angmin,mu_angmax
25400,25490,0.001723,0.00946,0,268.75,0,0,0,0,1,0,0,-145.12,-69.48,145.54,71.25,0,0,0,0
25474,25598,0.000649,0.003437,0,273.67,0,0,0,0,1,0,0,82.51,64.33,-82.44,-64.27,0,0,0,0
25474,25598,0.000649,0.003437,0,273.67,0,0,0,0,1,0,0,82.51,64.33,-82.44,-64.27,0,0,0,0
25587,25474,0.001315,0.008085,0,286.98,0,0,0,0,1,0,0,-125.64,-54.03,125.88,54.99,0,0,0,0
25657,25675,0.000876,0.005469,0,222.62,0,0,0,0,1,0,0,-40.87,-16.98,40.89,14.28,0,0,0,0
25714,25659,0.001574,0.011737,0,217.84,0,0,0,0,1,0,0,41.22,86.38,-41.09,-86.22,0,0,0,0
30126,30127,0.000791,0.004027,0,291.86,0,0,0,0,1,0,0,-69.12,45.18,69.18,-48.38,0,0,0,0
30144,30174,0.000844,0.00513,0,298.05,0,0,0,0,1,0,0,-85.79,-60.81,85.88,59.49,0,0,0,0
30174,30126,0.001332,0.007524,0,220.75,0,0,0,0,1,0,0,14.06,67.21,-14,-67.29,0,0,0,0
30226,30189,0.000502,0.003375,0,200.41,0,0,0,0,1,0,0,-5.61,-46.4,5.62,46.13,0,0,0,0
40006,40007,0.000254,0.001189,0,200.41,0,0,0,0,1,0,0,41.59,5.18,-41.59,-5.16,0,0,0,0
40144,40168,0.00297,0.014369,0,172.56,0,0,0,0,1,0,0,-64.18,15.4,64.31,-15.19,0,0,0,0
40192,40151,0.004426,0.019717,0,197.35,0,0,0,0,1,0,0,-78.7,-27.64,79,28.8,0,0,0,0
40192,40151,0.004426,0.019717,0,197.35,0,0,0,0,1,0,0,-78.7,-27.64,79,28.8,0,0,0,0
40299,40206,0.001286,0.005404,0,193.49,0,0,0,0,1,0,0,60.3,25.11,-60.25,-25.04,0,0,0,0
40299,40206,0.001286,0.005404,0,193.49,0,0,0,0,1,0,0,60.3,25.11,-60.25,-25.04,0,0,0,0
40367,40410,0.001148,0.00562,0,130.56,0,0,0,0,1,0,0,-5.84,-5.93,5.84,5.83,0,0,0,0
40534,40563,0.007318,0.034713,0,161.36,0,0,0,0,1,0,0,-41.8,-10.89,41.93,9.09,0,0,0,0
10001,11077,0,7.183137177,0,99999,99999,99999,1,0,1,-360,360,0,0,0,0,0,0,0,0
10001,11041,0,17.10397933,0,99999,99999,99999,1,0,1,-360,360,0,0,0,0,0,0,0,0
10001,11014,0,9.908303011,0,99999,99999,99999,1,0,1,-360,360,0,0,0,0,0,0,0,0
10001,10022,0,0.868825053,0,99999,99999,99999,1,0,1,-360,360,0,0,0,0,0,0,0,0
10001,10025,0,11.33499495,0,99999,99999,99999,1,0,1,-360,360,0,0,0,0,0,0,0,0
10001,10930,0,11.80971854,0,99999,99999,99999,1,0,1,-360,360,0,0,0,0,0,0,0,0
10001,10919,0,7.973637793,0,99999,99999,99999,1,0,1,-360,360,0,0,0,0,0,0,0,0
10001,10908,0,10.17135992,0,99999,99999,99999,1,0,1,-360,360,0,0,0,0,0,0,0,0
10001,10209,0,4.322736034,0,99999,99999,99999,1,0,1,-360,360,0,0,0,0,0,0,0,0
10001,10344,0,10.04339922,0,99999,99999,99999,1,0,1,-360,360,0,0,0,0,0,0,0,0
10001,10228,0,2.522781421,0,99999,99999,99999,1,0,1,-360,360,0,0,0,0,0,0,0,0
10001,10710,0,6.386312763,0,99999,99999,99999,1,0,1,-360,360,0,0,0,0,0,0,0,0
10001,10750,0,6.715173171,0,99999,99999,99999,1,0,1,-360,360,0,0,0,0,0,0,0,0
10001,10859,0,0.882374952,0,99999,99999,99999,1,0,1,-360,360,0,0,0,0,0,0,0,0
10001,10683,0,15.19122374,0,99999,99999,99999,1,0,1,-360,360,0,0,0,0,0,0,0,0
10022,74235,0,17.41811903,0,99999,99999,99999,1,0,1,-360,360,0,0,0,0,0,0,0,0
10022,13698,0,7.548769488,0,99999,99999,99999,1,0,1,-360,360,0,0,0,0,0,0,0,0
10022,13693,0,19.18779483,0,99999,99999,99999,1,0,1,-360,360,0,0,0,0,0,0,0,0
10022,13684,0,7.773346677,0,99999,99999,99999,1,0,1,-360,360,0,0,0,0,0,0,0,0
10022,13669,0,7.588381612,0,99999,99999,99999,1,0,1,-360,360,0,0,0,0,0,0,0,0
10022,13518,0,16.3967012,0,99999,99999,99999,1,0,1,-360,360,0,0,0,0,0,0,0,0
10022,13509,0,8.806046383,0,99999,99999,99999,1,0,1,-360,360,0,0,0,0,0,0,0,0
10022,13475,0,6.695932855,0,99999,99999,99999,1,0,1,-360,360,0,0,0,0,0,0,0,0
10022,13265,0,5.106402912,0,99999,99999,99999,1,0,1,-360,360,0,0,0,0,0,0,0,0
10022,10093,0,12.17116262,0,99999,99999,99999,1,0,1,-360,360,0,0,0,0,0,0,0,0
10022,13181,0,13.84401486,0,99999,99999,99999,1,0,1,-360,360,0,0,0,0,0,0,0,0
10022,13175,0,21.12367098,0,99999,99999,99999,1,0,1,-360,360,0,0,0,0,0,0,0,0
10022,13177,0,20.70526072,0,99999,99999,99999,1,0,1,-360,360,0,0,0,0,0,0,0,0
10022,11077,0,0.952394309,0,99999,99999,99999,1,0,1,-360,360,0,0,0,0,0,0,0,0
10022,10033,0,5.129606227,0,99999,99999,99999,1,0,1,-360,360,0,0,0,0,0,0,0,0
10022,11041,0,2.235856138,0,99999,99999,99999,1,0,1,-360,360,0,0,0,0,0,0,0,0
10022,11014,0,1.292605334,0,99999,99999,99999,1,0,1,-360,360,0,0,0,0,0,0,0,0
10022,10025,0,1.338864721,0,99999,99999,99999,1,0,1,-360,360,0,0,0,0,0,0,0,0
10022,10930,0,1.379437369,0,99999,99999,99999,1,0,1,-360,360,0,0,0,0,0,0,0,0
10022,10525,0,3.644933007,0,99999,99999,99999,1,0,1,-360,360,0,0,0,0,0,0,0,0
10022,10919,0,1.282974052,0,99999,99999,99999,1,0,1,-360,360,0,0,0,0,0,0,0,0
10022,10908,0,1.249884169,0,99999,99999,99999,1,0,1,-360,360,0,0,0,0,0,0,0,0
10022,10209,0,0.543337009,0,99999,99999,99999,1,0,1,-360,360,0,0,0,0,0,0,0,0
10022,10344,0,1.252372131,0,99999,99999,99999,1,0,1,-360,360,0,0,0,0,0,0,0,0
10022,10228,0,0.375487925,0,99999,99999,99999,1,0,1,-360,360,0,0,0,0,0,0,0,0
10022,10710,0,0.785232338,0,99999,99999,99999,1,0,1,-360,360,0,0,0,0,0,0,0,0
10022,10558,0,4.149589131,0,99999,99999,99999,1,0,1,-360,360,0,0,0,0,0,0,0,0
10022,10750,0,0.918020205,0,99999,99999,99999,1,0,1,-360,360,0,0,0,0,0,0,0,0
10022,10859,0,0.092496769,0,99999,99999,99999,1,0,1,-360,360,0,0,0,0,0,0,0,0
10022,10570,0,6.555648103,0,99999,99999,99999,1,0,1,-360,360,0,0,0,0,0,0,0,0
10022,10683,0,1.869006104,0,99999,99999,99999,1,0,1,-360,360,0,0,0,0,0,0,0,0
10022,10811,0,4.333223052,0,99999,99999,99999,1,0,1,-360,360,0,0,0,0,0,0,0,0
10022,10944,0,18.58443063,0,99999,99999,99999,1,0,1,-360,360,0,0,0,0,0,0,0,0
10022,10677,0,17.51449336,0,99999,99999,99999,1,0,1,-360,360,0,0,0,0,0,0,0,0
10022,13499,0,11.66309146,0,99999,99999,99999,1,0,1,-360,360,0,0,0,0,0,0,0,0
10025,13698,0,5.633474635,0,99999,99999,99999,1,0,1,-360,360,0,0,0,0,0,0,0,0
10025,13693,0,5.147594129,0,99999,99999,99999,1,0,1,-360,360,0,0,0,0,0,0,0,0
10025,13684,0,5.231982364,0,99999,99999,99999,1,0,1,-360,360,0,0,0,0,0,0,0,0
10025,13669,0,2.561438018,0,99999,99999,99999,1,0,1,-360,360,0,0,0,0,0,0,0,0
10025,13518,0,7.845192789,0,99999,99999,99999,1,0,1,-360,360,0,0,0,0,0,0,0,0
10025,13509,0,7.68568311,0,99999,99999,99999,1,0,1,-360,360,0,0,0,0,0,0,0,0
10025,13475,0,6.169759185,0,99999,99999,99999,1,0,1,-360,360,0,0,0,0,0,0,0,0
10025,13265,0,1.507654654,0,99999,99999,99999,1,0,1,-360,360,0,0,0,0,0,0,0,0
10025,10093,0,3.215268961,0,99999,99999,99999,1,0,1,-360,360,0,0,0,0,0,0,0,0
10025,13181,0,3.752804466,0,99999,99999,99999,1,0,1,-360,360,0,0,0,0,0,0,0,0
10025,13175,0,6.399125528,0,99999,99999,99999,1,0,1,-360,360,0,0,0,0,0,0,0,0
10025,13177,0,5.956838746,0,99999,99999,99999,1,0,1,-360,360,0,0,0,0,0,0,0,0
10025,13183,0,13.30027507,0,99999,99999,99999,1,0,1,-360,360,0,0,0,0,0,0,0,0
10025,11077,0,1.761686168,0,99999,99999,99999,1,0,1,-360,360,0,0,0,0,0,0,0,0
10025,10033,0,0.502979452,0,99999,99999,99999,1,0,1,-360,360,0,0,0,0,0,0,0,0
10025,10035,0,14.09573744,0,99999,99999,99999,1,0,1,-360,360,0,0,0,0,0,0,0,0
10025,11041,0,4.121521402,0,99999,99999,99999,1,0,1,-360,360,0,0,0,0,0,0,0,0
10025,11014,0,2.387650012,0,99999,99999,99999,1,0,1,-360,360,0,0,0,0,0,0,0,0
10025,10930,0,0.338693812,0,99999,99999,99999,1,0,1,-360,360,0,0,0,0,0,0,0,0
10025,10525,0,5.660515692,0,99999,99999,99999,1,0,1,-360,360,0,0,0,0,0,0,0,0
10025,10919,0,2.425765174,0,99999,99999,99999,1,0,1,-360,360,0,0,0,0,0,0,0,0
10025,10908,0,2.180132543,0,99999,99999,99999,1,0,1,-360,360,0,0,0,0,0,0,0,0
10025,10209,0,0.490163435,0,99999,99999,99999,1,0,1,-360,360,0,0,0,0,0,0,0,0
10025,10344,0,0.760951375,0,99999,99999,99999,1,0,1,-360,360,0,0,0,0,0,0,0,0
10025,10228,0,0.589426987,0,99999,99999,99999,1,0,1,-360,360,0,0,0,0,0,0,0,0
10025,10710,0,1.437441565,0,99999,99999,99999,1,0,1,-360,360,0,0,0,0,0,0,0,0
10025,10558,0,7.013499255,0,99999,99999,99999,1,0,1,-360,360,0,0,0,0,0,0,0,0
10025,10750,0,1.691695785,0,99999,99999,99999,1,0,1,-360,360,0,0,0,0,0,0,0,0
10025,10859,0,0.161066273,0,99999,99999,99999,1,0,1,-360,360,0,0,0,0,0,0,0,0
10025,10570,0,10.36328519,0,99999,99999,99999,1,0,1,-360,360,0,0,0,0,0,0,0,0
10025,10683,0,2.916471233,0,99999,99999,99999,1,0,1,-360,360,0,0,0,0,0,0,0,0
10025,10811,0,6.115087818,0,99999,99999,99999,1,0,1,-360,360,0,0,0,0,0,0,0,0
10025,10944,0,18.40218344,0,99999,99999,99999,1,0,1,-360,360,0,0,0,0,0,0,0,0
10025,13499,0,6.104104182,0,99999,99999,99999,1,0,1,-360,360,0,0,0,0,0,0,0,0
10033,20390,0,13.27703437,0,99999,99999,99999,1,0,1,-360,360,0,0,0,0,0,0,0,0
10033,13000,0,20.13542093,0,99999,99999,99999,1,0,1,-360,360,0,0,0,0,0,0,0,0
10033,13698,0,2.593953205,0,99999,99999,99999,1,0,1,-360,360,0,0,0,0,0,0,0,0
10033,13693,0,0.269348496,0,99999,99999,99999,1,0,1,-360,360,0,0,0,0,0,0,0,0
10033,13684,0,2.251494152,0,99999,99999,99999,1,0,1,-360,360,0,0,0,0,0,0,0,0
10033,13669,0,0.953403121,0,99999,99999,99999,1,0,1,-360,360,0,0,0,0,0,0,0,0
10033,13518,0,2.794275532,0,99999,99999,99999,1,0,1,-360,360,0,0,0,0,0,0,0,0
10033,13509,0,3.95294547,0,99999,99999,99999,1,0,1,-360,360,0,0,0,0,0,0,0,0
10033,13475,0,3.326995977,0,99999,99999,99999,1,0,1,-360,360,0,0,0,0,0,0,0,0
10033,13265,0,0.36065517,0,99999,99999,99999,1,0,1,-360,360,0,0,0,0,0,0,0,0
10033,10093,0,0.065082699,0,99999,99999,99999,1,0,1,-360,360,0,0,0,0,0,0,0,0
10033,13181,0,0.810545822,0,99999,99999,99999,1,0,1,-360,360,0,0,0,0,0,0,0,0
10033,13175,0,1.425345798,0,99999,99999,99999,1,0,1,-360,360,0,0,0,0,0,0,0,0
10033,13177,0,1.426685271,0,99999,99999,99999,1,0,1,-360,360,0,0,0,0,0,0,0,0
10033,13183,0,1.79356575,0,99999,99999,99999,1,0,1,-360,360,0,0,0,0,0,0,0,0
10033,11077,0,5.906165724,0,99999,99999,99999,1,0,1,-360,360,0,0,0,0,0,0,0,0
10033,10035,0,0.00631339,0,99999,99999,99999,1,0,1,-360,360,0,0,0,0,0,0,0,0
10033,11041,0,13.91018601,0,99999,99999,99999,1,0,1,-360,360,0,0,0,0,0,0,0,0
10033,11014,0,8.06879385,0,99999,99999,99999,1,0,1,-360,360,0,0,0,0,0,0,0,0
10033,10930,0,0.869159538,0,99999,99999,99999,1,0,1,-360,360,0,0,0,0,0,0,0,0
10033,10525,0,20.91315685,0,99999,99999,99999,1,0,1,-360,360,0,0,0,0,0,0,0,0
10033,10919,0,8.760431216,0,99999,99999,99999,1,0,1,-360,360,0,0,0,0,0,0,0,0
10033,10908,0,4.314578813,0,99999,99999,99999,1,0,1,-360,360,0,0,0,0,0,0,0,0
10033,10209,0,1.9518576,0,99999,99999,99999,1,0,1,-360,360,0,0,0,0,0,0,0,0
10033,10344,0,2.174604767,0,99999,99999,99999,1,0,1,-360,360,0,0,0,0,0,0,0,0
10033,10228,0,2.259055986,0,99999,99999,99999,1,0,1,-360,360,0,0,0,0,0,0,0,0
10033,10710,0,4.878191632,0,99999,99999,99999,1,0,1,-360,360,0,0,0,0,0,0,0,0
10033,10750,0,5.764411281,0,99999,99999,99999,1,0,1,-360,360,0,0,0,0,0,0,0,0
10033,10859,0,0.621163363,0,99999,99999,99999,1,0,1,-360,360,0,0,0,0,0,0,0,0
10033,10683,0,3.768887962,0,99999,99999,99999,1,0,1,-360,360,0,0,0,0,0,0,0,0
10033,10811,0,5.966629701,0,99999,99999,99999,1,0,1,-360,360,0,0,0,0,0,0,0,0
10033,10944,0,10.60963651,0,99999,99999,99999,1,0,1,-360,360,0,0,0,0,0,0,0,0
10033,10607,0,21.27477999,0,99999,99999,99999,1,0,1,-360,360,0,0,0,0,0,0,0,0
10033,13499,0,2.398396569,0,99999,99999,99999,1,0,1,-360,360,0,0,0,0,0,0,0,0
10035,20390,0,20.01085718,0,99999,99999,99999,1,0,1,-360,360,0,0,0,0,0,0,0,0
10035,13698,0,3.990126336,0,99999,99999,99999,1,0,1,-360,360,0,0,0,0,0,0,0,0
10035,13693,0,0.343000561,0,99999,99999,99999,1,0,1,-360,360,0,0,0,0,0,0,0,0
10035,13684,0,3.433501334,0,99999,99999,99999,1,0,1,-360,360,0,0,0,0,0,0,0,0
10035,13669,0,1.449826482,0,99999,99999,99999,1,0,1,-360,360,0,0,0,0,0,0,0,0
10035,13518,0,4.145163118,0,99999,99999,99999,1,0,1,-360,360,0,0,0,0,0,0,0,0
10035,13509,0,6.167808241,0,99999,99999,99999,1,0,1,-360,360,0,0,0,0,0,0,0,0
10035,13475,0,5.228056476,0,99999,99999,99999,1,0,1,-360,360,0,0,0,0,0,0,0,0
10035,13265,0,0.506775988,0,99999,99999,99999,1,0,1,-360,360,0,0,0,0,0,0,0,0
10035,10093,0,0.40556171,0,99999,99999,99999,1,0,1,-360,360,0,0,0,0,0,0,0,0
10035,13181,0,1.129559341,0,99999,99999,99999,1,0,1,-360,360,0,0,0,0,0,0,0,0
10035,13175,0,1.993856852,0,99999,99999,99999,1,0,1,-360,360,0,0,0,0,0,0,0,0
10035,13177,0,2.003531098,0,99999,99999,99999,1,0,1,-360,360,0,0,0,0,0,0,0,0
10035,13183,0,2.595249205,0,99999,99999,99999,1,0,1,-360,360,0,0,0,0,0,0,0,0
10035,10930,0,10.29614804,0,99999,99999,99999,1,0,1,-360,360,0,0,0,0,0,0,0,0
10035,10908,0,10.78305522,0,99999,99999,99999,1,0,1,-360,360,0,0,0,0,0,0,0,0
10035,10209,0,18.78133933,0,99999,99999,99999,1,0,1,-360,360,0,0,0,0,0,0,0,0
10035,10344,0,15.10452772,0,99999,99999,99999,1,0,1,-360,360,0,0,0,0,0,0,0,0
10035,10859,0,6.90331536,0,99999,99999,99999,1,0,1,-360,360,0,0,0,0,0,0,0,0
10035,10683,0,7.357055276,0,99999,99999,99999,1,0,1,-360,360,0,0,0,0,0,0,0,0
10035,10811,0,10.56884195,0,99999,99999,99999,1,0,1,-360,360,0,0,0,0,0,0,0,0
10035,10944,0,16.82779277,0,99999,99999,99999,1,0,1,-360,360,0,0,0,0,0,0,0,0
10035,13499,0,3.629896067,0,99999,99999,99999,1,0,1,-360,360,0,0,0,0,0,0,0,0
10093,20487,0,13.92370411,0,99999,99999,99999,1,0,1,-360,360,0,0,0,0,0,0,0,0
10093,20136,0,18.10720085,0,99999,99999,99999,1,0,1,-360,360,0,0,0,0,0,0,0,0
10093,20439,0,10.62897804,0,99999,99999,99999,1,0,1,-360,360,0,0,0,0,0,0,0,0
10093,20428,0,12.27476433,0,99999,99999,99999,1,0,1,-360,360,0,0,0,0,0,0,0,0
10093,20390,0,4.109937152,0,99999,99999,99999,1,0,1,-360,360,0,0,0,0,0,0,0,0
10093,13000,0,5.201971567,0,99999,99999,99999,1,0,1,-360,360,0,0,0,0,0,0,0,0
10093,20007,0,6.451213956,0,99999,99999,99999,1,0,1,-360,360,0,0,0,0,0,0,0,0
10093,13698,0,0.832943574,0,99999,99999,99999,1,0,1,-360,360,0,0,0,0,0,0,0,0
10093,13693,0,0.260246104,0,99999,99999,99999,1,0,1,-360,360,0,0,0,0,0,0,0,0
10093,13684,0,0.704881268,0,99999,99999,99999,1,0,1,-360,360,0,0,0,0,0,0,0,0
10093,13669,0,0.355472488,0,99999,99999,99999,1,0,1,-360,360,0,0,0,0,0,0,0,0
10093,13366,0,8.161410905,0,99999,99999,99999,1,0,1,-360,360,0,0,0,0,0,0,0,0
10093,13518,0,0.74984761,0,99999,99999,99999,1,0,1,-360,360,0,0,0,0,0,0,0,0
10093,13509,0,1.298910353,0,99999,99999,99999,1,0,1,-360,360,0,0,0,0,0,0,0,0
10093,13475,0,1.112705785,0,99999,99999,99999,1,0,1,-360,360,0,0,0,0,0,0,0,0
10093,13265,0,0.063803698,0,99999,99999,99999,1,0,1,-360,360,0,0,0,0,0,0,0,0
10093,13181,0,0.060229004,0,99999,99999,99999,1,0,1,-360,360,0,0,0,0,0,0,0,0
10093,13175,0,0.313281816,0,99999,99999,99999,1,0,1,-360,360,0,0,0,0,0,0,0,0
10093,13177,0,0.167010633,0,99999,99999,99999,1,0,1,-360,360,0,0,0,0,0,0,0,0
10093,13183,0,0.023051119,0,99999,99999,99999,1,0,1,-360,360,0,0,0,0,0,0,0,0
10093,11077,0,7.444401101,0,99999,99999,99999,1,0,1,-360,360,0,0,0,0,0,0,0,0
10093,10768,0,16.20395019,0,99999,99999,99999,1,0,1,-360,360,0,0,0,0,0,0,0,0
10093,11041,0,17.89394699,0,99999,99999,99999,1,0,1,-360,360,0,0,0,0,0,0,0,0
10093,11014,0,10.42822136,0,99999,99999,99999,1,0,1,-360,360,0,0,0,0,0,0,0,0
10093,10965,0,14.52665082,0,99999,99999,99999,1,0,1,-360,360,0,0,0,0,0,0,0,0
10093,10930,0,2.349696468,0,99999,99999,99999,1,0,1,-360,360,0,0,0,0,0,0,0,0
10093,10919,0,14.60241174,0,99999,99999,99999,1,0,1,-360,360,0,0,0,0,0,0,0,0
10093,10908,0,2.365591633,0,99999,99999,99999,1,0,1,-360,360,0,0,0,0,0,0,0,0
10093,10209,0,4.268319759,0,99999,99999,99999,1,0,1,-360,360,0,0,0,0,0,0,0,0
10093,10344,0,3.444329375,0,99999,99999,99999,1,0,1,-360,360,0,0,0,0,0,0,0,0
10093,10228,0,5.184060494,0,99999,99999,99999,1,0,1,-360,360,0,0,0,0,0,0,0,0
10093,10710,0,6.392733355,0,99999,99999,99999,1,0,1,-360,360,0,0,0,0,0,0,0,0
10093,10750,0,7.660381597,0,99999,99999,99999,1,0,1,-360,360,0,0,0,0,0,0,0,0
10093,10859,0,1.565307596,0,99999,99999,99999,1,0,1,-360,360,0,0,0,0,0,0,0,0
10093,10570,0,14.3472581,0,99999,99999,99999,1,0,1,-360,360,0,0,0,0,0,0,0,0
10093,10683,0,1.611480581,0,99999,99999,99999,1,0,1,-360,360,0,0,0,0,0,0,0,0
10093,10609,0,8.139453116,0,99999,99999,99999,1,0,1,-360,360,0,0,0,0,0,0,0,0
10093,10811,0,2.277170395,0,99999,99999,99999,1,0,1,-360,360,0,0,0,0,0,0,0,0
10093,10944,0,3.564055745,0,99999,99999,99999,1,0,1,-360,360,0,0,0,0,0,0,0,0
10093,10607,0,7.083035943,0,99999,99999,99999,1,0,1,-360,360,0,0,0,0,0,0,0,0
10093,13499,0,0.765018771,0,99999,99999,99999,1,0,1,-360,360,0,0,0,0,0,0,0,0
...
